226
Properties=species:S:1:pos:R:3 pbc="F F F"
N      31.81600728      15.21354276      18.62926712 
C      32.27353351      16.60861961      18.48680556 
C      31.06355083      17.48962580      18.54977332 
O      29.92681406      16.99744071      18.52944602 
C      32.92548740      16.73925250      17.13207014 
O      31.88363867      16.40275124      16.20801468 
H      31.35712706      14.93295207      17.77701831 
H      32.59336385      14.59392727      18.79449503 
H      31.15737993      15.11077240      19.38395493 
H      32.96541632      16.83921257      19.27676445 
H      33.26987141      17.74486380      16.97168079 
H      33.74804878      16.05067809      17.04526725 
H      32.19569247      16.20541960      15.32978827 
N      31.27592655      18.79438960      18.55769786 
C      30.16787049      19.71655162      18.51208160 
C      29.41190391      19.51993552      17.23374681 
O      28.17051986      19.63584824      17.20497314 
C      30.67593432      21.15091793      18.63338342 
C      31.40175267      21.35607621      19.96080555 
C      29.52736078      22.13374176      18.46991032 
C      30.57300219      20.99350077      21.18132751 
H      32.19772981      19.15453537      18.63116761 
H      29.47876500      19.50255972      19.30751008 
H      31.38581735      21.31090210      17.83209092 
H      32.32170794      20.78763820      19.97306002 
H      31.68445528      22.39870921      20.00999422 
H      28.71853364      21.89966761      19.14647709 
H      29.87701452      23.13257520      18.68480554 
H      29.13489591      22.12198241      17.46427737 
H      29.62436078      21.51120147      21.17962633 
H      30.37856034      19.93060264      21.22249067 
H      31.10099786      21.26576445      22.08483091 
N      30.09434597      19.22835037      16.14412277 
C      29.42547522      19.02501577      14.88177544 
C      28.54835908      17.80952765      14.96807396 
O      27.38662387      17.83309472      14.52609345 
C      30.45661849      18.89935220      13.76588379 
C      29.78889775      18.47050020      12.47169371 
C      31.17374625      20.22601183      13.58642434 
H      31.08174983      19.14693007      16.18707662 
H      28.77323957      19.85666384      14.68069012 
H      31.17018988      18.14253939      14.06192455 
H      30.51211753      18.48128458      11.66960151 
H      29.37924899      17.47462237      12.54493444 
H      28.98538064      19.14981753      12.21878735 
H      31.92398722      20.13601954      12.81391571 
H      30.46492394      20.98789786      13.28884957 
H      31.66019524      20.54819681      14.49573491 
N      29.05024475      16.71427059      15.51789310 
C      28.23770123      15.52333682      15.59179742 
C      27.03104398      15.78190592      16.45163467 
O      25.91107148      15.34864683      16.13107763 
C      29.04372462      14.37118215      16.15791095 
H      29.98496033      16.69424466      15.86880763 
H      27.86747971      15.28083673      14.61165721 
H      28.45445512      13.46783704      16.13852817 
H      29.93378903      14.22276404      15.56628994 
H      29.32127179      14.57936215      17.17865187 
N      27.22328232      16.46924323      17.56745880 
C      26.12857427      16.79808321      18.44926699 
C      25.12358994      17.63885740      17.71229818 
O      23.90170556      17.42045599      17.80140827 
C      26.71462296      17.53707576      19.64543709 
C      25.70027663      18.22253688      20.54353544 
C      24.50808198      17.37053524      20.91209552 
N      24.92021562      16.07291542      21.41445837 
C      24.09687310      15.04036245      21.46423879 
N      22.84764744      15.16321561      21.05765126 
N      24.53248727      13.87339057      21.92016473 
H      28.14468631      16.75487497      17.82398965 
H      25.61237750      15.90757747      18.76007720 
H      27.29443043      16.81954118      20.20553547 
H      27.39887695      18.28224885      19.27393306 
H      26.21029369      18.55335842      21.43684118 
H      25.31711453      19.10713186      20.05331808 
H      23.91427474      17.87300286      21.66013013 
H      23.90118803      17.21938068      20.04199883 
H      25.83499955      15.96870165      21.78412906 
H      22.46355068      16.02041116      20.70916167 
H      22.26015799      14.36444204      21.02867044 
H      25.47284385      13.76087816      22.21472287 
H      23.92714778      13.08937517      21.97688651 
N      25.59694583      18.62844877      16.98094605 
C      24.70807260      19.49002080      16.24821453 
C      23.92652553      18.68245775      15.25110807 
O      22.70824159      18.86457230      15.08762223 
C      25.52416959      20.56046231      15.54867159 
O      26.17759405      21.38300130      16.50803700 
H      26.57851138      18.80300587      16.95717230 
H      23.99785241      19.94806674      16.91340918 
H      26.24072921      20.09284906      14.89359308 
H      24.86922796      21.18912320      14.97275577 
H      26.97233620      20.96606166      16.84325639 
N      24.60492426      17.79108933      14.55097541 
C      23.95821909      16.98465456      13.55012252 
C      22.90528725      16.11644680      14.18171003 
O      21.77932191      15.99094666      13.66822390 
C      24.99011287      16.11062963      12.87521637 
C      25.90268345      16.89408395      11.98683950 
O      25.64077026      18.05019677      11.62716485 
N      26.98918984      16.24385526      11.57423450 
H      25.59396513      17.71052498      14.67020637 
H      23.46461915      17.60975220      12.83002862 
H      25.56524170      15.58221548      13.61827507 
H      24.49039208      15.37327548      12.26142810 
H      27.63612305      16.69678480      10.97336109 
H      27.20766315      15.33446165      11.90262743 
N      23.24412612      15.48041462      15.29007398 
C      22.28663637      14.65232473      15.97622216 
C      21.10063373      15.48828282      16.35824958 
O      19.93400413      15.10109998      16.18921319 
C      22.94193495      14.06767547      17.22338846 
C      22.00158727      13.19127432      17.99137252 
C      21.09077358      13.74316906      18.87971815 
C      22.01593143      11.81890830      17.81179196 
C      20.22283330      12.93529675      19.58867928 
C      21.14347469      11.00591072      18.51500417 
C      20.24838167      11.56240673      19.40972613 
H      24.16892240      15.56581580      15.66189347 
H      21.92923785      13.86730703      15.33321240 
H      23.80333849      13.50194371      16.90627156 
H      23.28888452      14.88418454      17.83760899 
H      21.06393029      14.80477055      19.01507282 
H      22.71496449      11.38697893      17.12434432 
H      19.52385621      13.37454801      20.26930718 
H      21.16678565       9.94589974      18.36752269 
H      19.57394708      10.93682458      19.95670444 
N      21.36811431      16.65857094      16.91029363 
C      20.29792718      17.50071044      17.36270231 
C      19.39238247      17.85194244      16.21286444 
O      18.15704287      17.80122904      16.34468116 
C      20.87724008      18.74469902      17.98785390 
C      21.54368134      18.46158739      19.29596285 
O      21.43202296      17.36738506      19.87875674 
N      22.22500968      19.47622161      19.81259955 
H      22.31166920      16.94083569      17.07533554 
H      19.69042902      16.97428882      18.07568468 
H      21.58614603      19.19946741      17.31433600 
H      20.08913563      19.46184743      18.17203645 
H      22.64629137      19.39691298      20.70641314 
H      22.32405599      20.33301015      19.32280441 
N      19.96194851      18.20026784      15.06953226 
C      19.16185978      18.49793318      13.90643148 
C      18.33780619      17.30201260      13.52586069 
O      17.15096084      17.42236833      13.16827740 
C      20.06846509      18.94324603      12.76148060 
C      19.31795143      18.95859370      11.44094159 
C      20.61408666      20.32713716      13.06845109 
H      20.95743906      18.25834779      15.00298832 
H      18.46019835      19.28056530      14.12811708 
H      20.88201790      18.23560887      12.70052653 
H      19.95947526      19.35470324      10.66677664 
H      19.00182416      17.96889959      11.14443343 
H      18.44153837      19.58837724      11.51384893 
H      21.30266537      20.63292531      12.29228035 
H      19.79873005      21.03896532      13.10029006 
H      21.13519802      20.34425424      14.01110052 
N      18.92079657      16.11592897      13.58661640 
C      18.19102859      14.91218732      13.27967301 
C      16.94270967      14.80087330      14.11323457 
O      15.94790316      14.21177820      13.66489638 
C      19.12787361      13.75028222      13.54230194 
S      18.26591457      12.11103852      13.29753912 
H      19.88228764      16.04453564      13.84735814 
H      17.86466501      14.91376881      12.25399713 
H      19.94888478      13.79447002      12.85261457 
H      19.48468656      13.79903257      14.54968254 
H      19.36850289      11.33884597      13.38412714 
N      16.97359746      15.31064489      15.33701215 
C      15.85193742      15.18064025      16.22254366 
C      14.76514065      16.18280732      15.95519004 
O      13.70455394      16.10916357      16.60300068 
C      16.28177892      15.29581354      17.67768903 
C      17.45701935      14.39698290      18.02867445 
C      17.38034285      13.02602379      17.39948937 
N      16.13878009      12.36909962      17.78316890 
C      15.48229702      11.48741757      17.05348821 
N      15.89645731      11.15692180      15.84108336 
N      14.38195958      10.92762027      17.53843754 
H      17.78849661      15.77750964      15.66337398 
H      15.40675749      14.21537135      16.05811021 
H      16.55202073      16.32038376      17.88379101 
H      15.42146022      15.05211542      18.27850313 
H      18.37699522      14.84117438      17.69561831 
H      17.51300714      14.29854460      19.10432885 
H      17.40812540      13.13330789      16.33252692 
H      18.22283614      12.42708268      17.70232186 
H      15.78637735      12.57290718      18.68935425 
H      16.69294312      11.56670786      15.41229906 
H      15.38532957      10.49848930      15.30218347 
H      14.05578050      11.14741079      18.44922534 
H      13.85631296      10.28159532      16.99947291 
N      14.98046770      17.12750931      15.05316256 
C      14.00490766      18.15893884      14.80655714 
C      12.77650402      17.66133291      14.08330042 
O      11.65820189      17.93543367      14.56830344 
C      14.64805630      19.31508645      14.06259214 
C      15.78871411      19.95757474      14.83489728 
C      16.42071617      21.04191415      13.97922616 
C      15.32398978      20.53205433      16.16166688 
H      15.84332103      17.16606205      14.55596295 
H      13.62903774      18.50026131      15.75195955 
H      15.02603294      18.96660685      13.11653379 
H      13.88510036      20.05779540      13.86765190 
H      16.52994572      19.20262444      15.03379191 
H      17.27146213      21.48199562      14.48339870 
H      16.75782922      20.63714448      13.03428218 
H      15.70129592      21.82674166      13.77766996 
H      16.14123313      21.04227087      16.65500740 
H      14.52436806      21.24615692      16.00274548 
H      14.96431600      19.75975661      16.82711209 
N      12.87894503      17.00195349      12.94050500 
C      11.68137490      16.47808817      12.31227000 
C      11.08401762      15.31297127      13.07429498 
O       9.87659917      15.05508670      12.79556609 
C      12.18207886      16.00768244      10.94918006 
C      13.61406579      15.58794545      11.24211495 
C      14.09487131      16.65903263      12.20179869 
O      11.81448372      14.65402100      13.86072172 
H      10.93076281      17.24174869      12.23261107 
H      11.57041679      15.21402059      10.55391867 
H      12.17189126      16.83396245      10.25259748 
H      13.62395034      14.62981739      11.73702475 
H      14.22897662      15.53273662      10.35807205 
H      14.86583612      16.31158866      12.85244342 
H      14.45218762      17.52168127      11.66102970 
